feeders/1_REDE2_1/005_segmentoMT.dss
New Line.SMT_10381 phases=3 bus1=660961.1.2.3 bus2= 660971.1.2.3 linecode=28_3 length=0.0436 units=km
New Line.SMT_10747 phases=3 bus1=641961.1.2.3 bus2= 7311.1.2.3 linecode=28_3 length=0.1079 units=km
New Line.SMT_11048 phases=1 bus1=413151.1 bus2= 417951.1 linecode=1_1 length=0.12108 units=km
New Line.SMT_12228 phases=3 bus1=7281.1.2.3 bus2= 266141.1.2.3 linecode=28_3 length=0.07211 units=km
New Line.SMT_1261 phases=1 bus1=66611.3 bus2= 66621.3 linecode=1_1 length=0.10042 units=km
New Line.SMT_12980 phases=1 bus1=561861.1 bus2= 561871.1 linecode=1_1 length=0.09701 units=km
New Line.SMT_1307 phases=1 bus1=614991.2 bus2= 215261.2 linecode=1_1 length=0.08343 units=km
New Line.SMT_13078 phases=1 bus1=11251.1 bus2= 561861.1 linecode=1_1 length=0.1364 units=km
New Line.SMT_1308 phases=1 bus1=215261.2 bus2= 215271.2 linecode=1_1 length=0.05045 units=km
New Line.SMT_13110 phases=1 bus1=561871.1 bus2= 561881.1 linecode=1_1 length=0.11161 units=km
New Line.SMT_13111 phases=1 bus1=561881.1 bus2= 561891.1 linecode=1_1 length=0.12761 units=km
New Line.SMT_13112 phases=1 bus1=561891.1 bus2= 561901.1 linecode=1_1 length=0.1006 units=km
New Line.SMT_13261 phases=1 bus1=44081.3 bus2= 44091.3 linecode=1_1 length=0.12219 units=km
New Line.SMT_13280 phases=3 bus1=72851.1.2.3 bus2= 72841.1.2.3 linecode=10_3 length=0.09825 units=km
New Line.SMT_13282 phases=1 bus1=37911.2 bus2= 37921.2 linecode=1_1 length=0.16464 units=km
New Line.SMT_13284 phases=3 bus1=73921.1.2.3 bus2= 73911.1.2.3 linecode=10_3 length=0.10308 units=km
New Line.SMT_13297 phases=3 bus1=74911.1.2.3 bus2= 74921.1.2.3 linecode=10_3 length=0.11113 units=km
New Line.SMT_13298 phases=1 bus1=51351.3 bus2= 51341.3 linecode=1_1 length=0.11583 units=km
New Line.SMT_13299 phases=2 bus1=51511.3.1 bus2= 71111.3.1 linecode=18_2 length=0.11611 units=km
New Line.SMT_13300 phases=1 bus1=51341.3 bus2= 70261.3 linecode=1_1 length=0.09973 units=km
New Line.SMT_13313 phases=3 bus1=66391.1.2.3 bus2= 66381.1.2.3 linecode=10_3 length=0.06987 units=km
New Line.SMT_13314 phases=2 bus1=71111.3.1 bus2= 71121.3.1 linecode=18_2 length=0.12317 units=km
New Line.SMT_13315 phases=1 bus1=71321.3 bus2= 71331.3 linecode=1_1 length=0.1 units=km
New Line.SMT_13336 phases=1 bus1=51361.3 bus2= 51351.3 linecode=1_1 length=0.10065 units=km
New Line.SMT_13371 phases=3 bus1=74721.1.2.3 bus2= 74711.1.2.3 linecode=10_3 length=0.10212 units=km
New Line.SMT_13372 phases=1 bus1=66441.3 bus2= 596121.3 linecode=1_1 length=0.0771 units=km
New Line.SMT_13383 phases=2 bus1=42451.3.1 bus2= 42461.3.1 linecode=18_2 length=0.10066 units=km
New Line.SMT_13394 phases=1 bus1=70261.3 bus2= 70251.3 linecode=1_1 length=0.10422 units=km
New Line.SMT_13409 phases=3 bus1=74761.1.2.3 bus2= 74771.1.2.3 linecode=10_3 length=0.10044 units=km
New Line.SMT_13415 phases=2 bus1=71121.3.1 bus2= 71131.3.1 linecode=18_2 length=0.10791 units=km
New Line.SMT_13425 phases=3 bus1=74771.1.2.3 bus2= 74781.1.2.3 linecode=10_3 length=0.09881 units=km
New Line.SMT_13431 phases=1 bus1=70251.3 bus2= 43121.3 linecode=1_1 length=0.11962 units=km
New Line.SMT_13433 phases=1 bus1=43121.3 bus2= 43111.3 linecode=1_1 length=0.08969 units=km
New Line.SMT_13441 phases=3 bus1=74701.1.2.3 bus2= 74021.1.2.3 linecode=10_3 length=0.06903 units=km
New Line.SMT_13442 phases=1 bus1=61091.3 bus2= 61111.3 linecode=1_1 length=0.12317 units=km
New Line.SMT_13446 phases=2 bus1=71141.3.1 bus2= 71151.3.1 linecode=18_2 length=0.09898 units=km
New Line.SMT_13447 phases=1 bus1=6CF199.3 bus2= 43101.3 linecode=1_1 length=0.06429 units=km
New Line.SMT_13454 phases=3 bus1=320761.1.2.3 bus2= 320771.1.2.3 linecode=10_3 length=0.12202 units=km
New Line.SMT_13481 phases=2 bus1=48511.3.1 bus2= 48521.3.1 linecode=18_2 length=0.10062 units=km
New Line.SMT_13499 phases=2 bus1=51391.3.1 bus2= 51381.3.1 linecode=18_2 length=0.07357 units=km
New Line.SMT_13516 phases=1 bus1=326241.2 bus2= 326221.2 linecode=1_1 length=0.11427 units=km
New Line.SMT_13530 phases=2 bus1=30911.3.1 bus2= 30921.3.1 linecode=18_2 length=0.08078 units=km
New Line.SMT_13545 phases=3 bus1=66491.1.2.3 bus2= 66501.1.2.3 linecode=10_3 length=0.09402 units=km
New Line.SMT_13546 phases=3 bus1=72811.1.2.3 bus2= 3491.1.2.3 linecode=10_3 length=0.07511 units=km
New Line.SMT_13583 phases=2 bus1=62151.3.1 bus2= 62161.3.1 linecode=18_2 length=0.1069 units=km
New Line.SMT_13591 phases=3 bus1=56821.1.2.3 bus2= 337711.1.2.3 linecode=10_3 length=0.02687 units=km
New Line.SMT_13592 phases=2 bus1=62161.3.1 bus2= 62171.3.1 linecode=18_2 length=0.11985 units=km
New Line.SMT_13593 phases=2 bus1=51381.3.1 bus2= 51371.3.1 linecode=18_2 length=0.23394 units=km
New Line.SMT_13605 phases=1 bus1=71301.3 bus2= 71311.3 linecode=1_1 length=0.14058 units=km
New Line.SMT_13606 phases=2 bus1=51481.3.1 bus2= 51491.3.1 linecode=18_2 length=0.10258 units=km
New Line.SMT_13637 phases=1 bus1=71311.3 bus2= 71321.3 linecode=1_1 length=0.13471 units=km
New Line.SMT_13650 phases=1 bus1=61121.3 bus2= 61131.3 linecode=1_1 length=0.14035 units=km
New Line.SMT_13652 phases=2 bus1=62171.3.1 bus2= 62181.3.1 linecode=18_2 length=0.06277 units=km
New Line.SMT_13653 phases=1 bus1=51371.3 bus2= 51361.3 linecode=1_1 length=0.10242 units=km
New Line.SMT_13665 phases=3 bus1=74851.1.2.3 bus2= 74861.1.2.3 linecode=10_3 length=0.12406 units=km
New Line.SMT_13691 phases=1 bus1=37901.2 bus2= 37911.2 linecode=1_1 length=0.1868 units=km
New Line.SMT_13702 phases=3 bus1=21851.1.2.3 bus2= 21841.1.2.3 linecode=10_3 length=0.08238 units=km
New Line.SMT_13717 phases=3 bus1=27221.1.2.3 bus2= 72911.1.2.3 linecode=10_3 length=0.07834 units=km
New Line.SMT_13721 phases=3 bus1=302181.1.2.3 bus2= 302191.1.2.3 linecode=10_3 length=0.08919 units=km
New Line.SMT_13722 phases=1 bus1=71191.3 bus2= 71201.3 linecode=1_1 length=0.10013 units=km
New Line.SMT_13726 phases=2 bus1=60261.3.1 bus2= 60271.3.1 linecode=18_2 length=0.08075 units=km
New Line.SMT_13728 phases=1 bus1=37791.2 bus2= 37811.2 linecode=1_1 length=0.11281 units=km
New Line.SMT_13737 phases=1 bus1=44071.3 bus2= 44081.3 linecode=1_1 length=0.09831 units=km
New Line.SMT_13747 phases=3 bus1=21921.1.2.3 bus2= 21911.1.2.3 linecode=10_3 length=0.08846 units=km
New Line.SMT_13751 phases=2 bus1=30921.3.1 bus2= 30931.3.1 linecode=18_2 length=0.09505 units=km
New Line.SMT_13752 phases=3 bus1=3491.1.2.3 bus2= 21711.1.2.3 linecode=10_3 length=0.00179 units=km
New Line.SMT_13753 phases=1 bus1=43101.3 bus2= 44071.3 linecode=1_1 length=0.08006 units=km
New Line.SMT_13761 phases=1 bus1=37981.2 bus2= 48581.2 linecode=1_1 length=0.08515 units=km
New Line.SMT_13764 phases=3 bus1=74931.1.2.3 bus2= 74951.1.2.3 linecode=10_3 length=0.10042 units=km
New Line.SMT_13773 phases=1 bus1=61131.3 bus2= 61141.3 linecode=1_1 length=0.09879 units=km
New Line.SMT_13777 phases=1 bus1=48581.2 bus2= 326211.2 linecode=1_1 length=0.122 units=km
New Line.SMT_13778 phases=1 bus1=37921.2 bus2= 37931.2 linecode=1_1 length=0.10065 units=km
New Line.SMT_13787 phases=3 bus1=73971.1.2.3 bus2= 73961.1.2.3 linecode=10_3 length=0.11202 units=km
New Line.SMT_13847 phases=3 bus1=73991.1.2.3 bus2= 73981.1.2.3 linecode=10_3 length=0.09305 units=km
New Line.SMT_13856 phases=3 bus1=74871.1.2.3 bus2= 74881.1.2.3 linecode=10_3 length=0.08581 units=km
New Line.SMT_13866 phases=3 bus1=21831.1.2.3 bus2= 21821.1.2.3 linecode=10_3 length=0.10032 units=km
New Line.SMT_13867 phases=2 bus1=42491.3.1 bus2= 62141.3.1 linecode=18_2 length=0.09803 units=km
New Line.SMT_13878 phases=2 bus1=62141.3.1 bus2= 62151.3.1 linecode=18_2 length=0.10009 units=km
New Line.SMT_13891 phases=3 bus1=49501.1.2.3 bus2= 45681.1.2.3 linecode=10_3 length=0.09578 units=km
New Line.SMT_1390 phases=1 bus1=215351.2 bus2= 155721.2 linecode=1_1 length=0.1722 units=km
New Line.SMT_1391 phases=1 bus1=155721.2 bus2= 580851.2 linecode=1_1 length=0.12525 units=km
New Line.SMT_13919 phases=3 bus1=63341.1.2.3 bus2= 63331.1.2.3 linecode=10_3 length=0.11434 units=km
New Line.SMT_13930 phases=3 bus1=72831.1.2.3 bus2= 72821.1.2.3 linecode=10_3 length=0.13454 units=km
New Line.SMT_13931 phases=2 bus1=62231.3.1 bus2= 62241.3.1 linecode=18_2 length=0.10735 units=km
New Line.SMT_13932 phases=3 bus1=48841.1.2.3 bus2= 48831.1.2.3 linecode=10_3 length=0.11666 units=km
New Line.SMT_13942 phases=2 bus1=51501.3.1 bus2= 51511.3.1 linecode=18_2 length=0.12347 units=km
New Line.SMT_13955 phases=3 bus1=72871.1.2.3 bus2= 72861.1.2.3 linecode=10_3 length=0.1006 units=km
New Line.SMT_13968 phases=2 bus1=62221.3.1 bus2= 62231.3.1 linecode=18_2 length=0.09801 units=km
New Line.SMT_13979 phases=2 bus1=62191.3.1 bus2= 62201.3.1 linecode=18_2 length=0.07779 units=km
New Line.SMT_13980 phases=1 bus1=37881.2 bus2= 37961.2 linecode=1_1 length=0.10328 units=km
New Line.SMT_13981 phases=3 bus1=74941.1.2.3 bus2= 74931.1.2.3 linecode=10_3 length=0.10124 units=km
New Line.SMT_13985 phases=1 bus1=61111.3 bus2= 61121.3 linecode=1_1 length=0.13706 units=km
New Line.SMT_13987 phases=3 bus1=74781.1.2.3 bus2= 337701.1.2.3 linecode=10_3 length=0.00169 units=km
New Line.SMT_14023 phases=1 bus1=37941.2 bus2= 37951.2 linecode=1_1 length=0.13465 units=km
New Line.SMT_14025 phases=2 bus1=62241.3.1 bus2= 62251.3.1 linecode=18_2 length=0.09082 units=km
New Line.SMT_14040 phases=3 bus1=66481.1.2.3 bus2= 66491.1.2.3 linecode=10_3 length=0.12847 units=km
New Line.SMT_14041 phases=3 bus1=73941.1.2.3 bus2= 73931.1.2.3 linecode=10_3 length=0.08505 units=km
New Line.SMT_14053 phases=2 bus1=62181.3.1 bus2= 62191.3.1 linecode=18_2 length=0.08264 units=km
New Line.SMT_14054 phases=3 bus1=48831.1.2.3 bus2= 48821.1.2.3 linecode=10_3 length=0.11618 units=km
New Line.SMT_14065 phases=3 bus1=9001.1.2.3 bus2= 9011.1.2.3 linecode=10_3 length=0.10948 units=km
New Line.SMT_14066 phases=3 bus1=69241.1.2.3 bus2= 69231.1.2.3 linecode=10_3 length=0.11611 units=km
New Line.SMT_14072 phases=2 bus1=42461.3.1 bus2= 42471.3.1 linecode=18_2 length=0.09044 units=km
New Line.SMT_14073 phases=2 bus1=62251.3.1 bus2= 62261.3.1 linecode=18_2 length=0.11628 units=km
New Line.SMT_14091 phases=1 bus1=37891.2 bus2= 37901.2 linecode=1_1 length=0.1352 units=km
New Line.SMT_14092 phases=1 bus1=37971.2 bus2= 37981.2 linecode=1_1 length=0.09405 units=km
New Line.SMT_14095 phases=2 bus1=51491.3.1 bus2= 51501.3.1 linecode=18_2 length=0.2874 units=km
New Line.SMT_14113 phases=3 bus1=37611.1.2.3 bus2= 37601.1.2.3 linecode=10_3 length=0.13298 units=km
New Line.SMT_14117 phases=2 bus1=44381.1.2 bus2= 63251.1.2 linecode=18_2 length=0.07962 units=km
New Line.SMT_14130 phases=3 bus1=66401.1.2.3 bus2= 66391.1.2.3 linecode=10_3 length=0.08766 units=km
New Line.SMT_14134 phases=2 bus1=68171.3.1 bus2= 68161.3.1 linecode=18_2 length=0.10325 units=km
New Line.SMT_14143 phases=1 bus1=68201.1 bus2= 68211.1 linecode=1_1 length=0.17837 units=km
New Line.SMT_14146 phases=3 bus1=69221.1.2.3 bus2= 69211.1.2.3 linecode=10_3 length=0.10791 units=km
New Line.SMT_14159 phases=3 bus1=69181.1.2.3 bus2= 69171.1.2.3 linecode=10_3 length=0.08105 units=km
New Line.SMT_14163 phases=3 bus1=66581.1.2.3 bus2= 8891.1.2.3 linecode=10_3 length=0.08023 units=km
New Line.SMT_14164 phases=2 bus1=74131.3.1 bus2= 74141.3.1 linecode=18_2 length=0.07793 units=km
New Line.SMT_14171 phases=3 bus1=9681.1.2.3 bus2= 9691.1.2.3 linecode=10_3 length=0.16101 units=km
New Line.SMT_14181 phases=3 bus1=69171.1.2.3 bus2= 69161.1.2.3 linecode=10_3 length=0.09886 units=km
New Line.SMT_14185 phases=3 bus1=66421.1.2.3 bus2= 66411.1.2.3 linecode=10_3 length=0.11962 units=km
New Line.SMT_14186 phases=1 bus1=37961.2 bus2= 37971.2 linecode=1_1 length=0.08179 units=km
New Line.SMT_14187 phases=2 bus1=10031.3.1 bus2= 68341.3.1 linecode=18_2 length=0.09557 units=km
New Line.SMT_14193 phases=3 bus1=21901.1.2.3 bus2= 21891.1.2.3 linecode=10_3 length=0.08769 units=km
New Line.SMT_14196 phases=2 bus1=68161.3.1 bus2= 68151.3.1 linecode=18_2 length=0.08472 units=km
New Line.SMT_14211 phases=2 bus1=62261.3.1 bus2= 62271.3.1 linecode=18_2 length=0.11092 units=km
New Line.SMT_14219 phases=2 bus1=44341.1.2 bus2= 44361.1.2 linecode=18_2 length=0.085 units=km
New Line.SMT_14223 phases=2 bus1=71181.3.1 bus2= 71171.3.1 linecode=18_2 length=0.09742 units=km
New Line.SMT_14225 phases=3 bus1=21891.1.2.3 bus2= 21881.1.2.3 linecode=10_3 length=0.1005 units=km
New Line.SMT_14226 phases=2 bus1=42431.3.1 bus2= 42441.3.1 linecode=18_2 length=0.11611 units=km
New Line.SMT_14227 phases=2 bus1=42441.3.1 bus2= 42451.3.1 linecode=18_2 length=0.11954 units=km
New Line.SMT_14230 phases=3 bus1=56831.1.2.3 bus2= 56841.1.2.3 linecode=10_3 length=0.09774 units=km
New Line.SMT_14247 phases=3 bus1=66471.1.2.3 bus2= 66481.1.2.3 linecode=10_3 length=0.1252 units=km
New Line.SMT_14253 phases=1 bus1=26741.2 bus2= 26881.2 linecode=1_1 length=0.05984 units=km
New Line.SMT_14254 phases=1 bus1=26741.2 bus2= 26751.2 linecode=37_1 length=0.083 units=km
New Line.SMT_14255 phases=3 bus1=61271.1.2.3 bus2= 61261.1.2.3 linecode=10_3 length=0.07737 units=km
New Line.SMT_14259 phases=2 bus1=44301.1.2 bus2= 44311.1.2 linecode=18_2 length=0.17914 units=km
New Line.SMT_14261 phases=3 bus1=61201.1.2.3 bus2= 61191.1.2.3 linecode=10_3 length=0.11602 units=km
New Line.SMT_14264 phases=1 bus1=61051.3 bus2= 61061.3 linecode=1_1 length=0.1114 units=km
New Line.SMT_14265 phases=1 bus1=71201.3 bus2= 71211.3 linecode=1_1 length=0.12758 units=km
New Line.SMT_14266 phases=2 bus1=71171.3.1 bus2= 71161.3.1 linecode=18_2 length=0.12402 units=km
New Line.SMT_14274 phases=3 bus1=61191.1.2.3 bus2= 22021.1.2.3 linecode=10_3 length=0.09265 units=km
New Line.SMT_14288 phases=3 bus1=62401.1.2.3 bus2= 62391.1.2.3 linecode=10_3 length=0.10002 units=km
New Line.SMT_14292 phases=3 bus1=56841.1.2.3 bus2= 56851.1.2.3 linecode=10_3 length=0.08736 units=km
New Line.SMT_14296 phases=1 bus1=26881.2 bus2= 26891.2 linecode=1_1 length=0.08386 units=km
New Line.SMT_14298 phases=3 bus1=22011.1.2.3 bus2= 22001.1.2.3 linecode=10_3 length=0.09074 units=km
New Line.SMT_14299 phases=1 bus1=71211.3 bus2= 71221.3 linecode=1_1 length=0.13662 units=km
New Line.SMT_14300 phases=2 bus1=71161.3.1 bus2= 33471.3.1 linecode=18_2 length=0.12044 units=km
New Line.SMT_14301 phases=3 bus1=56921.1.2.3 bus2= 56911.1.2.3 linecode=10_3 length=0.10279 units=km
New Line.SMT_14307 phases=3 bus1=74881.1.2.3 bus2= 74891.1.2.3 linecode=10_3 length=0.07923 units=km
New Line.SMT_14316 phases=1 bus1=326211.2 bus2= 326241.2 linecode=1_1 length=0.16637 units=km
New Line.SMT_14320 phases=1 bus1=71261.3 bus2= 71291.3 linecode=1_1 length=0.1525 units=km
New Line.SMT_14321 phases=2 bus1=51421.3.1 bus2= 51431.3.1 linecode=18_2 length=0.09618 units=km
New Line.SMT_14330 phases=1 bus1=337681.1 bus2= 337691.1 linecode=1_1 length=0.19616 units=km
New Line.SMT_14332 phases=1 bus1=44101.3 bus2= 44111.3 linecode=1_1 length=0.10819 units=km
New Line.SMT_14333 phases=2 bus1=48501.3.1 bus2= 48511.3.1 linecode=18_2 length=0.09487 units=km
New Line.SMT_14336 phases=1 bus1=71291.3 bus2= 71301.3 linecode=1_1 length=0.13528 units=km
New Line.SMT_14347 phases=1 bus1=44091.3 bus2= 44101.3 linecode=1_1 length=0.09998 units=km
New Line.SMT_14349 phases=3 bus1=61251.1.2.3 bus2= 61241.1.2.3 linecode=10_3 length=0.10373 units=km
New Line.SMT_14360 phases=2 bus1=62291.3.1 bus2= 62301.3.1 linecode=18_2 length=0.10912 units=km
New Line.SMT_14364 phases=1 bus1=26681.2 bus2= 26691.2 linecode=1_1 length=0.09266 units=km
New Line.SMT_14369 phases=3 bus1=48781.1.2.3 bus2= 48771.1.2.3 linecode=10_3 length=0.09405 units=km
New Line.SMT_14370 phases=2 bus1=62301.3.1 bus2= 62311.3.1 linecode=18_2 length=0.09527 units=km
New Line.SMT_14373 phases=2 bus1=60181.3.1 bus2= 60241.3.1 linecode=18_2 length=0.07908 units=km
New Line.SMT_14387 phases=1 bus1=26761.2 bus2= 26771.2 linecode=37_1 length=0.08329 units=km
New Line.SMT_14388 phases=1 bus1=26891.2 bus2= 26901.2 linecode=1_1 length=0.16193 units=km
New Line.SMT_14412 phases=1 bus1=37881.2 bus2= 37891.2 linecode=1_1 length=0.10034 units=km
New Line.SMT_14413 phases=2 bus1=51431.3.1 bus2= 51481.3.1 linecode=18_2 length=0.15383 units=km
New Line.SMT_14427 phases=3 bus1=66441.1.2.3 bus2= 66451.1.2.3 linecode=10_3 length=0.07752 units=km
New Line.SMT_14431 phases=3 bus1=74041.1.2.3 bus2= 74131.1.2.3 linecode=10_3 length=0.10013 units=km
New Line.SMT_14437 phases=3 bus1=72861.1.2.3 bus2= 72851.1.2.3 linecode=10_3 length=0.09918 units=km
New Line.SMT_14449 phases=1 bus1=9051.3 bus2= 9061.3 linecode=1_1 length=0.07778 units=km
New Line.SMT_14450 phases=1 bus1=37781.2 bus2= 37791.2 linecode=1_1 length=0.1396 units=km
New Line.SMT_14452 phases=3 bus1=37631.1.2.3 bus2= 37621.1.2.3 linecode=10_3 length=0.09862 units=km
New Line.SMT_14457 phases=1 bus1=61481.1 bus2= 625391.1 linecode=1_1 length=0.14009 units=km
New Line.SMT_14458 phases=1 bus1=625391.1 bus2= 625401.1 linecode=1_1 length=0.09437 units=km
New Line.SMT_14461 phases=1 bus1=44121.3 bus2= 44131.3 linecode=1_1 length=0.11853 units=km
New Line.SMT_14481 phases=1 bus1=16CF691.3 bus2= 61011.3 linecode=1_1 length=0.07284 units=km
New Line.SMT_14487 phases=2 bus1=61361.3.1 bus2= 61371.3.1 linecode=18_2 length=0.08603 units=km
New Line.SMT_14496 phases=1 bus1=44131.3 bus2= 44141.3 linecode=1_1 length=0.09589 units=km
New Line.SMT_14503 phases=3 bus1=10571.1.2.3 bus2= 10561.1.2.3 linecode=10_3 length=0.10208 units=km
New Line.SMT_14504 phases=1 bus1=26721.2 bus2= 26731.2 linecode=1_1 length=0.10565 units=km
New Line.SMT_14513 phases=3 bus1=73981.1.2.3 bus2= 73971.1.2.3 linecode=10_3 length=0.07703 units=km
New Line.SMT_14514 phases=1 bus1=625401.1 bus2= 625411.1 linecode=1_1 length=0.1227 units=km
New Line.SMT_14515 phases=1 bus1=625411.1 bus2= 625421.1 linecode=1_1 length=0.07692 units=km
New Line.SMT_14517 phases=3 bus1=10601.1.2.3 bus2= 10591.1.2.3 linecode=10_3 length=0.13067 units=km
New Line.SMT_14518 phases=1 bus1=26691.2 bus2= 26701.2 linecode=1_1 length=0.08889 units=km
New Line.SMT_14519 phases=1 bus1=26771.2 bus2= 26781.2 linecode=37_1 length=0.09426 units=km
New Line.SMT_14529 phases=1 bus1=6FR185.2 bus2= 26411.2 linecode=1_1 length=0.05771 units=km
New Line.SMT_14536 phases=3 bus1=48741.1.2.3 bus2= 48731.1.2.3 linecode=10_3 length=0.11727 units=km
New Line.SMT_14542 phases=1 bus1=26901.2 bus2= 26911.2 linecode=1_1 length=0.10325 units=km
New Line.SMT_14543 phases=1 bus1=26781.2 bus2= 26791.2 linecode=37_1 length=0.11521 units=km
New Line.SMT_14544 phases=3 bus1=37601.1.2.3 bus2= 37591.1.2.3 linecode=10_3 length=0.12105 units=km
New Line.SMT_14545 phases=2 bus1=62271.3.1 bus2= 62281.3.1 linecode=18_2 length=0.12433 units=km
New Line.SMT_14548 phases=1 bus1=326221.2 bus2= 326231.2 linecode=1_1 length=0.17551 units=km
New Line.SMT_14549 phases=3 bus1=48731.1.2.3 bus2= 48721.1.2.3 linecode=10_3 length=0.08602 units=km
New Line.SMT_14552 phases=1 bus1=44151.3 bus2= 44161.3 linecode=1_1 length=0.10009 units=km
New Line.SMT_14558 phases=1 bus1=26411.2 bus2= 26421.2 linecode=1_1 length=0.08599 units=km
New Line.SMT_14563 phases=3 bus1=26331.1.2.3 bus2= 26321.1.2.3 linecode=10_3 length=0.10286 units=km
New Line.SMT_14565 phases=2 bus1=68201.3.1 bus2= 68191.3.1 linecode=18_2 length=0.11992 units=km
New Line.SMT_14573 phases=3 bus1=74211.1.2.3 bus2= 74201.1.2.3 linecode=10_3 length=0.09552 units=km
New Line.SMT_14577 phases=1 bus1=44171.3 bus2= 44181.3 linecode=1_1 length=0.10296 units=km
New Line.SMT_14582 phases=1 bus1=26911.2 bus2= 26921.2 linecode=1_1 length=0.10749 units=km
...
